---- qbsp / ericw-tools v0.18.1 ----
Input file: crucibletextures.map
Output file: crucibletextures.bsp

---- LoadMapFile ----
         6933 faces
         1199 brushes
          422 entities
           37 unique texnames
         1763 texinfo

Opened WAD: C:/quake-spire-map/wads/prototype_1_2.wad
Opened WAD: C:/quake-spire-map/wads/id1.wad
Processing hull 0...
---- Brush_LoadEntity ----
         1185 brushes
          702 planes
---- CSGFaces ----
         6849 brushfaces
         5342 csgfaces
         4752 mergedfaces
---- SolidBSP ----
         6834 split nodes
         3016 solid leafs
         3647 empty leafs
          172 water leafs
            0 detail leafs
            0 detail illusionary leafs
            0 detail fence leafs
            0 illusionary visblocker leafs
        12902 leaffaces
        12057 nodefaces
---- Portalize ----
         3819 vis leafs
         3819 vis clusters
        10800 vis portals
---- FillOutside ----
          983 outleafs
---- MergeAll ----
         4506 mergefaces
---- SolidBSP ----
         2382 split nodes
         1071 solid leafs
         1267 empty leafs
           45 water leafs
            0 detail leafs
            0 detail illusionary leafs
            0 detail fence leafs
            0 illusionary visblocker leafs
         7750 leaffaces
         6186 nodefaces
---- Portalize ----
         1312 vis leafs
         1312 vis clusters
         4057 vis portals
---- Tjunc ----
         4640 world edges
        21444 edge points
         5162 edges added by tjunctions
            0 faces added by tjunctions
---- MakeFaceEdges ----
---- GrowRegions ----
Processing hull 1...
Processing hull 2...
---- WriteBSPFile ----
Wrote crucibletextures.bsp
         1313 planes            26260
         8268 vertexes          99216
         2450 nodes             58800
         1197 texinfo           47880
         6248 faces            124960
         5699 clipnodes         45592
         1373 leafs             38444
         7810 marksurfaces      15620
        29982 surfedges        119928
        15041 edges             60164
           37 textures         266832
              lightdata             0
              visdata               0
              entdata           27568

1.134 seconds elapsed
Peak memory usage: 43089832 (41.1M)
