---- qbsp / ericw-tools v0.18.1 ----
Input file: crucibletextures.map
Output file: crucibletextures.bsp

---- LoadMapFile ----
        10187 faces
         1741 brushes
          542 entities
           40 unique texnames
         2232 texinfo

Opened WAD: C:/quake-spire-map/wads/prototype_1_2.wad
Opened WAD: C:/quake-spire-map/wads/id1.wad
Processing hull 0...
---- Brush_LoadEntity ----
         1727 brushes
          761 planes
---- CSGFaces ----
        10103 brushfaces
         7388 csgfaces
         6503 mergedfaces
---- SolidBSP ----
         9392 split nodes
         4007 solid leafs
         5222 empty leafs
          164 water leafs
            0 detail leafs
            0 detail illusionary leafs
            0 detail fence leafs
            0 illusionary visblocker leafs
        16760 leaffaces
        15673 nodefaces
---- Portalize ----
         5386 vis leafs
         5386 vis clusters
        16334 vis portals
---- FillOutside ----
         1287 outleafs
---- MergeAll ----
         6287 mergefaces
---- SolidBSP ----
         3250 split nodes
         1457 solid leafs
         1749 empty leafs
           45 water leafs
            0 detail leafs
            0 detail illusionary leafs
            0 detail fence leafs
            0 illusionary visblocker leafs
         9956 leaffaces
         8124 nodefaces
---- Portalize ----
         1794 vis leafs
         1794 vis clusters
         6242 vis portals
---- Tjunc ----
         5638 world edges
        28805 edge points
         6927 edges added by tjunctions
            0 faces added by tjunctions
---- MakeFaceEdges ----
---- GrowRegions ----
Processing hull 1...
Processing hull 2...
---- WriteBSPFile ----
Wrote crucibletextures.bsp
         1434 planes            28680
        11053 vertexes         132636
         3318 nodes             79632
         1605 texinfo           64200
         8180 faces            163600
         9242 clipnodes         73936
         1855 leafs             51940
        10011 marksurfaces      20022
        39472 surfedges        157888
        19798 edges             79192
           40 textures         283284
              lightdata             0
              visdata               0
              entdata           28256

1.628 seconds elapsed
Peak memory usage: 60430718 (57.6M)
