---- qbsp / ericw-tools v0.18.1 ----
Input file: crucibletextures.map
Output file: crucibletextures.bsp

---- LoadMapFile ----
         3736 faces
          656 brushes
          360 entities
           36 unique texnames
         1198 texinfo

Opened WAD: C:/quake-spire-map/wads/prototype_1_2.wad
Opened WAD: C:/quake-spire-map/wads/id1.wad
Processing hull 0...
---- Brush_LoadEntity ----
          650 brushes
          467 planes
---- CSGFaces ----
         3700 brushfaces
         2686 csgfaces
         2439 mergedfaces
---- SolidBSP ----
         3167 split nodes
         1351 solid leafs
         1722 empty leafs
           95 water leafs
            0 detail leafs
            0 detail illusionary leafs
            0 detail fence leafs
            0 illusionary visblocker leafs
         7203 leaffaces
         6777 nodefaces
---- Portalize ----
         1817 vis leafs
         1817 vis clusters
         4918 vis portals
---- FillOutside ----
          596 outleafs
---- MergeAll ----
         2290 mergefaces
---- SolidBSP ----
         1176 split nodes
          490 solid leafs
          647 empty leafs
           40 water leafs
            0 detail leafs
            0 detail illusionary leafs
            0 detail fence leafs
            0 illusionary visblocker leafs
         4601 leaffaces
         3856 nodefaces
---- Portalize ----
          687 vis leafs
          687 vis clusters
         2292 vis portals
---- Tjunc ----
         2583 world edges
        12464 edge points
         2954 edges added by tjunctions
            0 faces added by tjunctions
---- MakeFaceEdges ----
---- GrowRegions ----
Processing hull 1...
Processing hull 2...
---- WriteBSPFile ----
Wrote crucibletextures.bsp
          858 planes            17160
         4942 vertexes          59304
         1212 nodes             29088
          756 texinfo           30240
         3886 faces             77720
         2915 clipnodes         23320
          724 leafs             20272
         4631 marksurfaces       9262
        18414 surfedges         73656
         9215 edges             36860
           36 textures         277668
              lightdata             0
              visdata               0
              entdata           27597

0.642 seconds elapsed
Peak memory usage: 25079074 (23.9M)
