---- qbsp / ericw-tools v0.18.1 ----
Input file: crucibletextures.map
Output file: crucibletextures.bsp

---- LoadMapFile ----
         4174 faces
          729 brushes
          374 entities
           38 unique texnames
         1281 texinfo

Opened WAD: C:/quake-spire-map/wads/prototype_1_2.wad
Opened WAD: C:/quake-spire-map/wads/id1.wad
Processing hull 0...
---- Brush_LoadEntity ----
          715 brushes
          505 planes
---- CSGFaces ----
         4090 brushfaces
         3117 csgfaces
         2872 mergedfaces
---- SolidBSP ----
         4011 split nodes
         1675 solid leafs
         2220 empty leafs
          117 water leafs
            0 detail leafs
            0 detail illusionary leafs
            0 detail fence leafs
            0 illusionary visblocker leafs
         8598 leaffaces
         8022 nodefaces
---- Portalize ----
         2337 vis leafs
         2337 vis clusters
         6409 vis portals
---- FillOutside ----
          747 outleafs
---- MergeAll ----
         2718 mergefaces
---- SolidBSP ----
         1378 split nodes
          609 solid leafs
          726 empty leafs
           44 water leafs
            0 detail leafs
            0 detail illusionary leafs
            0 detail fence leafs
            0 illusionary visblocker leafs
         5430 leaffaces
         4461 nodefaces
---- Portalize ----
          770 vis leafs
          770 vis clusters
         2464 vis portals
---- Tjunc ----
         2967 world edges
        14464 edge points
         3575 edges added by tjunctions
            0 faces added by tjunctions
---- MakeFaceEdges ----
---- GrowRegions ----
Processing hull 1...
Processing hull 2...
---- WriteBSPFile ----
Wrote crucibletextures.bsp
          951 planes            19020
         5777 vertexes          69324
         1446 nodes             34704
          824 texinfo           32960
         4507 faces             90140
         3842 clipnodes         30736
          831 leafs             23268
         5471 marksurfaces      10942
        21526 surfedges         86104
        10824 edges             43296
           38 textures         288636
              lightdata             0
              visdata               0
              entdata           27549

0.698 seconds elapsed
Peak memory usage: 28410542 (27.1M)
