---- qbsp / ericw-tools v0.18.1 ----
Input file: crucibletextures.map
Output file: crucibletextures.bsp

---- LoadMapFile ----
         6351 faces
         1102 brushes
          400 entities
           37 unique texnames
         1745 texinfo

Opened WAD: C:/quake-spire-map/wads/prototype_1_2.wad
Opened WAD: C:/quake-spire-map/wads/id1.wad
Processing hull 0...
---- Brush_LoadEntity ----
         1088 brushes
          689 planes
---- CSGFaces ----
         6267 brushfaces
         5026 csgfaces
         4499 mergedfaces
---- SolidBSP ----
         5728 split nodes
         2524 solid leafs
         3070 empty leafs
          135 water leafs
            0 detail leafs
            0 detail illusionary leafs
            0 detail fence leafs
            0 illusionary visblocker leafs
        11628 leaffaces
        10842 nodefaces
---- Portalize ----
         3205 vis leafs
         3205 vis clusters
         9113 vis portals
---- FillOutside ----
          792 outleafs
---- MergeAll ----
         4243 mergefaces
---- SolidBSP ----
         2280 split nodes
         1025 solid leafs
         1211 empty leafs
           45 water leafs
            0 detail leafs
            0 detail illusionary leafs
            0 detail fence leafs
            0 illusionary visblocker leafs
         7456 leaffaces
         5936 nodefaces
---- Portalize ----
         1256 vis leafs
         1256 vis clusters
         3838 vis portals
---- Tjunc ----
         4431 world edges
        20437 edge points
         4967 edges added by tjunctions
            0 faces added by tjunctions
---- MakeFaceEdges ----
---- GrowRegions ----
Processing hull 1...
Processing hull 2...
---- WriteBSPFile ----
Wrote crucibletextures.bsp
         1295 planes            25900
         7902 vertexes          94824
         2348 nodes             56352
         1162 texinfo           46480
         5998 faces            119960
         5119 clipnodes         40952
         1317 leafs             36876
         7516 marksurfaces      15032
        28784 surfedges        115136
        14442 edges             57768
           37 textures         266832
              lightdata             0
              visdata               0
              entdata           27568

1.005 seconds elapsed
Peak memory usage: 38395424 (36.6M)
