---- qbsp / ericw-tools v0.18.1 ----
Input file: crucible.map
Output file: crucible.bsp

---- LoadMapFile ----
         1538 faces
          255 brushes
          242 entities
           18 unique texnames
          361 texinfo

Opened WAD: C:/quake-spire-map/wads/prototype_1_2.wad
Opened WAD: C:/quake-spire-map/wads/id1.wad
Processing hull 0...
---- Brush_LoadEntity ----
          249 brushes
          260 planes
---- CSGFaces ----
         1502 brushfaces
         1501 csgfaces
         1313 mergedfaces
---- SolidBSP ----
         2579 split nodes
         1178 solid leafs
         1311 empty leafs
           91 water leafs
            0 detail leafs
            0 detail illusionary leafs
            0 detail fence leafs
            0 illusionary visblocker leafs
         5460 leaffaces
         5224 nodefaces
---- Portalize ----
         1402 vis leafs
         1402 vis clusters
         3881 vis portals
---- FillOutside ----
          425 outleafs
---- MergeAll ----
         1337 mergefaces
---- SolidBSP ----
          814 split nodes
          322 solid leafs
          457 empty leafs
           36 water leafs
            0 detail leafs
            0 detail illusionary leafs
            0 detail fence leafs
            0 illusionary visblocker leafs
         3184 leaffaces
         2570 nodefaces
---- Portalize ----
          493 vis leafs
          493 vis clusters
         1597 vis portals
---- Tjunc ----
         1698 world edges
         8386 edge points
         2223 edges added by tjunctions
            0 faces added by tjunctions
---- MakeFaceEdges ----
---- GrowRegions ----
Processing hull 1...
Processing hull 2...
---- WriteBSPFile ----
Wrote crucible.bsp
          647 planes            12940
         3412 vertexes          40944
          850 nodes             20400
          264 texinfo           10560
         2606 faces             52120
         2985 clipnodes         23880
          530 leafs             14840
         3220 marksurfaces       6440
        12646 surfedges         50584
         6324 edges             25296
           18 textures         188476
              lightdata             0
              visdata               0
              entdata           17563

0.424 seconds elapsed
Peak memory usage: 17455936 (16.6M)
