---- qbsp / ericw-tools v0.18.1 ----
Input file: crucibletextures.map
Output file: crucibletextures.bsp

---- LoadMapFile ----
         1678 faces
          279 brushes
          255 entities
           26 unique texnames
          427 texinfo

Opened WAD: C:/quake-spire-map/wads/prototype_1_2.wad
Opened WAD: C:/quake-spire-map/wads/id1.wad
Processing hull 0...
---- Brush_LoadEntity ----
          273 brushes
          281 planes
---- CSGFaces ----
         1642 brushfaces
         1576 csgfaces
         1352 mergedfaces
---- SolidBSP ----
         2585 split nodes
         1180 solid leafs
         1315 empty leafs
           91 water leafs
            0 detail leafs
            0 detail illusionary leafs
            0 detail fence leafs
            0 illusionary visblocker leafs
         5523 leaffaces
         5283 nodefaces
---- Portalize ----
         1406 vis leafs
         1406 vis clusters
         3895 vis portals
---- FillOutside ----
          425 outleafs
---- MergeAll ----
         1375 mergefaces
---- SolidBSP ----
          806 split nodes
          313 solid leafs
          455 empty leafs
           39 water leafs
            0 detail leafs
            0 detail illusionary leafs
            0 detail fence leafs
            0 illusionary visblocker leafs
         3275 leaffaces
         2617 nodefaces
---- Portalize ----
          494 vis leafs
          494 vis clusters
         1594 vis portals
---- Tjunc ----
         1752 world edges
         8533 edge points
         2244 edges added by tjunctions
            0 faces added by tjunctions
---- MakeFaceEdges ----
---- GrowRegions ----
Processing hull 1...
Processing hull 2...
---- WriteBSPFile ----
Wrote crucibletextures.bsp
          660 planes            13200
         3463 vertexes          41556
          842 nodes             20208
          315 texinfo           12600
         2653 faces             53060
         2974 clipnodes         23792
          531 leafs             14868
         3311 marksurfaces       6622
        12858 surfedges         51432
         6430 edges             25720
           26 textures         232348
              lightdata             0
              visdata               0
              entdata           17563

0.450 seconds elapsed
Peak memory usage: 17907978 (17.1M)
