---- qbsp / ericw-tools v0.18.1 ----
Input file: crucibletextures.map
Output file: crucibletextures.bsp

---- LoadMapFile ----
         4186 faces
          731 brushes
          375 entities
           37 unique texnames
         1323 texinfo

Opened WAD: C:/quake-spire-map/wads/prototype_1_2.wad
Opened WAD: C:/quake-spire-map/wads/id1.wad
Processing hull 0...
---- Brush_LoadEntity ----
          717 brushes
          504 planes
---- CSGFaces ----
         4102 brushfaces
         3109 csgfaces
         2897 mergedfaces
---- SolidBSP ----
         3963 split nodes
         1658 solid leafs
         2197 empty leafs
          109 water leafs
            0 detail leafs
            0 detail illusionary leafs
            0 detail fence leafs
            0 illusionary visblocker leafs
         8578 leaffaces
         8004 nodefaces
---- Portalize ----
         2306 vis leafs
         2306 vis clusters
         6316 vis portals
---- FillOutside ----
          743 outleafs
---- MergeAll ----
         2739 mergefaces
---- SolidBSP ----
         1366 split nodes
          609 solid leafs
          714 empty leafs
           44 water leafs
            0 detail leafs
            0 detail illusionary leafs
            0 detail fence leafs
            0 illusionary visblocker leafs
         5433 leaffaces
         4473 nodefaces
---- Portalize ----
          758 vis leafs
          758 vis clusters
         2408 vis portals
---- Tjunc ----
         2970 world edges
        14495 edge points
         3537 edges added by tjunctions
            0 faces added by tjunctions
---- MakeFaceEdges ----
---- GrowRegions ----
Processing hull 1...
Processing hull 2...
---- WriteBSPFile ----
Wrote crucibletextures.bsp
          950 planes            19000
         5787 vertexes          69444
         1434 nodes             34416
          846 texinfo           33840
         4519 faces             90380
         3796 clipnodes         30368
          819 leafs             22932
         5474 marksurfaces      10948
        21532 surfedges         86128
        10827 edges             43308
           37 textures         266832
              lightdata             0
              visdata               0
              entdata           27568

0.704 seconds elapsed
Peak memory usage: 28300036 (27.0M)
