---- qbsp / ericw-tools v0.18.1 ----
Input file: crucibletextures.map
Output file: crucibletextures.bsp

---- LoadMapFile ----
         3496 faces
          616 brushes
          346 entities
           30 unique texnames
         1116 texinfo

Opened WAD: C:/quake-spire-map/wads/prototype_1_2.wad
Opened WAD: C:/quake-spire-map/wads/id1.wad
Processing hull 0...
---- Brush_LoadEntity ----
          610 brushes
          408 planes
---- CSGFaces ----
         3460 brushfaces
         2511 csgfaces
         2238 mergedfaces
---- SolidBSP ----
         3238 split nodes
         1498 solid leafs
         1645 empty leafs
           96 water leafs
            0 detail leafs
            0 detail illusionary leafs
            0 detail fence leafs
            0 illusionary visblocker leafs
         6895 leaffaces
         6600 nodefaces
---- Portalize ----
         1741 vis leafs
         1741 vis clusters
         4817 vis portals
---- FillOutside ----
          486 outleafs
---- MergeAll ----
         2102 mergefaces
---- SolidBSP ----
         1003 split nodes
          439 solid leafs
          524 empty leafs
           41 water leafs
            0 detail leafs
            0 detail illusionary leafs
            0 detail fence leafs
            0 illusionary visblocker leafs
         4040 leaffaces
         3344 nodefaces
---- Portalize ----
          565 vis leafs
          565 vis clusters
         1776 vis portals
---- Tjunc ----
         2186 world edges
        10821 edge points
         2531 edges added by tjunctions
            0 faces added by tjunctions
---- MakeFaceEdges ----
---- GrowRegions ----
Processing hull 1...
Processing hull 2...
---- WriteBSPFile ----
Wrote crucibletextures.bsp
          761 planes            15220
         4256 vertexes          51072
         1039 nodes             24936
          686 texinfo           27440
         3380 faces             67600
         3327 clipnodes         26616
          602 leafs             16856
         4076 marksurfaces       8152
        15976 surfedges         63904
         7989 edges             31956
           30 textures         217564
              lightdata             0
              visdata               0
              entdata           26189

0.615 seconds elapsed
Peak memory usage: 23906352 (22.8M)
