---- qbsp / ericw-tools v0.18.1 ----
Input file: crucibletextures.map
Output file: crucibletextures.bsp

---- LoadMapFile ----
         4809 faces
          835 brushes
          388 entities
           37 unique texnames
         1581 texinfo

Opened WAD: C:/quake-spire-map/wads/prototype_1_2.wad
Opened WAD: C:/quake-spire-map/wads/id1.wad
Processing hull 0...
---- Brush_LoadEntity ----
          821 brushes
          576 planes
---- CSGFaces ----
         4725 brushfaces
         3652 csgfaces
         3339 mergedfaces
---- SolidBSP ----
         4373 split nodes
         1870 solid leafs
         2374 empty leafs
          130 water leafs
            0 detail leafs
            0 detail illusionary leafs
            0 detail fence leafs
            0 illusionary visblocker leafs
         9525 leaffaces
         8848 nodefaces
---- Portalize ----
         2504 vis leafs
         2504 vis clusters
         6909 vis portals
---- FillOutside ----
          768 outleafs
---- MergeAll ----
         3173 mergefaces
---- SolidBSP ----
         1609 split nodes
          745 solid leafs
          820 empty leafs
           45 water leafs
            0 detail leafs
            0 detail illusionary leafs
            0 detail fence leafs
            0 illusionary visblocker leafs
         5981 leaffaces
         4848 nodefaces
---- Portalize ----
          865 vis leafs
          865 vis clusters
         2628 vis portals
---- Tjunc ----
         3464 world edges
        16237 edge points
         3972 edges added by tjunctions
            0 faces added by tjunctions
---- MakeFaceEdges ----
---- GrowRegions ----
Processing hull 1...
Processing hull 2...
---- WriteBSPFile ----
Wrote crucibletextures.bsp
         1101 planes            22020
         6447 vertexes          77364
         1677 nodes             40248
         1036 texinfo           41440
         4906 faces             98120
         4491 clipnodes         35928
          926 leafs             25928
         6037 marksurfaces      12074
        23498 surfedges         93992
        11799 edges             47196
           37 textures         266832
              lightdata             0
              visdata               0
              entdata           27568

0.793 seconds elapsed
Peak memory usage: 31957254 (30.5M)
