---- qbsp / ericw-tools v0.18.1 ----
Input file: crucibletextures.map
Output file: crucibletextures.bsp

---- LoadMapFile ----
         9801 faces
         1677 brushes
          525 entities
           37 unique texnames
         2159 texinfo

Opened WAD: C:/quake-spire-map/wads/prototype_1_2.wad
Opened WAD: C:/quake-spire-map/wads/id1.wad
Processing hull 0...
---- Brush_LoadEntity ----
         1663 brushes
          744 planes
---- CSGFaces ----
         9717 brushfaces
         7101 csgfaces
         6295 mergedfaces
---- SolidBSP ----
         9169 split nodes
         3911 solid leafs
         5095 empty leafs
          164 water leafs
            0 detail leafs
            0 detail illusionary leafs
            0 detail fence leafs
            0 illusionary visblocker leafs
        16403 leaffaces
        15354 nodefaces
---- Portalize ----
         5259 vis leafs
         5259 vis clusters
        15778 vis portals
---- FillOutside ----
         1287 outleafs
---- MergeAll ----
         6093 mergefaces
---- SolidBSP ----
         3125 split nodes
         1409 solid leafs
         1672 empty leafs
           45 water leafs
            0 detail leafs
            0 detail illusionary leafs
            0 detail fence leafs
            0 illusionary visblocker leafs
         9815 leaffaces
         7940 nodefaces
---- Portalize ----
         1717 vis leafs
         1717 vis clusters
         5744 vis portals
---- Tjunc ----
         5499 world edges
        28051 edge points
         6756 edges added by tjunctions
            0 faces added by tjunctions
---- MakeFaceEdges ----
---- GrowRegions ----
Processing hull 1...
Processing hull 2...
---- WriteBSPFile ----
Wrote crucibletextures.bsp
         1391 planes            27820
        10782 vertexes         129384
         3193 nodes             76632
         1546 texinfo           61840
         8000 faces            160000
         8750 clipnodes         70000
         1778 leafs             49784
         9874 marksurfaces      19748
        38590 surfedges        154360
        19345 edges             77380
           37 textures         266832
              lightdata             0
              visdata               0
              entdata           27846

1.689 seconds elapsed
Peak memory usage: 57754060 (55.1M)
