---- qbsp / ericw-tools v0.18.1 ----
Input file: crucibletextures.map
Output file: crucibletextures.bsp

---- LoadMapFile ----
         6351 faces
         1102 brushes
          400 entities
           37 unique texnames
         1690 texinfo

Opened WAD: C:/quake-spire-map/wads/prototype_1_2.wad
Opened WAD: C:/quake-spire-map/wads/id1.wad
Processing hull 0...
---- Brush_LoadEntity ----
         1088 brushes
          689 planes
---- CSGFaces ----
         6267 brushfaces
         5026 csgfaces
         4485 mergedfaces
---- SolidBSP ----
         5728 split nodes
         2524 solid leafs
         3070 empty leafs
          135 water leafs
            0 detail leafs
            0 detail illusionary leafs
            0 detail fence leafs
            0 illusionary visblocker leafs
        11592 leaffaces
        10806 nodefaces
---- Portalize ----
         3205 vis leafs
         3205 vis clusters
         9113 vis portals
---- FillOutside ----
          792 outleafs
---- MergeAll ----
         4227 mergefaces
---- SolidBSP ----
         2260 split nodes
         1008 solid leafs
         1208 empty leafs
           45 water leafs
            0 detail leafs
            0 detail illusionary leafs
            0 detail fence leafs
            0 illusionary visblocker leafs
         7422 leaffaces
         5908 nodefaces
---- Portalize ----
         1253 vis leafs
         1253 vis clusters
         3816 vis portals
---- Tjunc ----
         4412 world edges
        20340 edge points
         4934 edges added by tjunctions
            0 faces added by tjunctions
---- MakeFaceEdges ----
---- GrowRegions ----
Processing hull 1...
Processing hull 2...
---- WriteBSPFile ----
Wrote crucibletextures.bsp
         1295 planes            25900
         7859 vertexes          94308
         2328 nodes             55872
         1134 texinfo           45360
         5970 faces            119400
         5105 clipnodes         40840
         1314 leafs             36792
         7482 marksurfaces      14964
        28642 surfedges        114568
        14371 edges             57484
           37 textures         266832
              lightdata             0
              visdata               0
              entdata           27568

1.062 seconds elapsed
Peak memory usage: 38338480 (36.6M)
