---- qbsp / ericw-tools v0.18.1 ----
Input file: crucibletextures.map
Output file: crucibletextures.bsp

---- LoadMapFile ----
         1746 faces
          290 brushes
          257 entities
           27 unique texnames
          435 texinfo

Opened WAD: C:/quake-spire-map/wads/prototype_1_2.wad
Opened WAD: C:/quake-spire-map/wads/id1.wad
Processing hull 0...
---- Brush_LoadEntity ----
          284 brushes
          309 planes
---- CSGFaces ----
         1710 brushfaces
         1630 csgfaces
         1414 mergedfaces
---- SolidBSP ----
         2861 split nodes
         1287 solid leafs
         1481 empty leafs
           94 water leafs
            0 detail leafs
            0 detail illusionary leafs
            0 detail fence leafs
            0 illusionary visblocker leafs
         5789 leaffaces
         5518 nodefaces
---- Portalize ----
         1575 vis leafs
         1575 vis clusters
         4551 vis portals
---- FillOutside ----
          405 outleafs
---- MergeAll ----
         1465 mergefaces
---- SolidBSP ----
          881 split nodes
          335 solid leafs
          506 empty leafs
           41 water leafs
            0 detail leafs
            0 detail illusionary leafs
            0 detail fence leafs
            0 illusionary visblocker leafs
         3416 leaffaces
         2783 nodefaces
---- Portalize ----
          547 vis leafs
          547 vis clusters
         1933 vis portals
---- Tjunc ----
         1894 world edges
         9159 edge points
         2380 edges added by tjunctions
            0 faces added by tjunctions
---- MakeFaceEdges ----
---- GrowRegions ----
Processing hull 1...
Processing hull 2...
---- WriteBSPFile ----
Wrote crucibletextures.bsp
          725 planes            14500
         3718 vertexes          44616
          917 nodes             22008
          341 texinfo           13640
         2819 faces             56380
         3130 clipnodes         25040
          584 leafs             16352
         3452 marksurfaces       6904
        13656 surfedges         54624
         6829 edges             27316
           27 textures         263672
              lightdata             0
              visdata               0
              entdata           17571

0.471 seconds elapsed
Peak memory usage: 18883068 (18.0M)
