---- qbsp / ericw-tools v0.18.1 ----
Input file: crucibletextures.map
Output file: crucibletextures.bsp

---- LoadMapFile ----
         3508 faces
          618 brushes
          358 entities
           29 unique texnames
         1122 texinfo

Opened WAD: C:/quake-spire-map/wads/prototype_1_2.wad
Opened WAD: C:/quake-spire-map/wads/id1.wad
Processing hull 0...
---- Brush_LoadEntity ----
          612 brushes
          409 planes
---- CSGFaces ----
         3472 brushfaces
         2498 csgfaces
         2225 mergedfaces
---- SolidBSP ----
         3261 split nodes
         1513 solid leafs
         1653 empty leafs
           96 water leafs
            0 detail leafs
            0 detail illusionary leafs
            0 detail fence leafs
            0 illusionary visblocker leafs
         6896 leaffaces
         6602 nodefaces
---- Portalize ----
         1749 vis leafs
         1749 vis clusters
         4825 vis portals
---- FillOutside ----
          486 outleafs
---- MergeAll ----
         2086 mergefaces
---- SolidBSP ----
          989 split nodes
          441 solid leafs
          518 empty leafs
           31 water leafs
            0 detail leafs
            0 detail illusionary leafs
            0 detail fence leafs
            0 illusionary visblocker leafs
         4001 leaffaces
         3337 nodefaces
---- Portalize ----
          549 vis leafs
          549 vis clusters
         1721 vis portals
---- Tjunc ----
         2193 world edges
        10856 edge points
         2519 edges added by tjunctions
            0 faces added by tjunctions
---- MakeFaceEdges ----
---- GrowRegions ----
Processing hull 1...
Processing hull 2...
---- WriteBSPFile ----
Wrote crucibletextures.bsp
          761 planes            15220
         4275 vertexes          51300
         1025 nodes             24600
          688 texinfo           27520
         3373 faces             67460
         3345 clipnodes         26760
          586 leafs             16408
         4037 marksurfaces       8074
        15936 surfedges         63744
         7969 edges             31876
           29 textures         212080
              lightdata             0
              visdata               0
              entdata           27599

0.602 seconds elapsed
Peak memory usage: 23979074 (22.9M)
