---- qbsp / ericw-tools v0.18.1 ----
Input file: crucibletextures.map
Output file: crucibletextures.bsp

---- LoadMapFile ----
         1968 faces
          331 brushes
          258 entities
           28 unique texnames
          539 texinfo

Opened WAD: C:/quake-spire-map/wads/prototype_1_2.wad
Opened WAD: C:/quake-spire-map/wads/id1.wad
Processing hull 0...
---- Brush_LoadEntity ----
          325 brushes
          324 planes
---- CSGFaces ----
         1932 brushfaces
         1743 csgfaces
         1520 mergedfaces
---- SolidBSP ----
         2947 split nodes
         1329 solid leafs
         1523 empty leafs
           96 water leafs
            0 detail leafs
            0 detail illusionary leafs
            0 detail fence leafs
            0 illusionary visblocker leafs
         5965 leaffaces
         5691 nodefaces
---- Portalize ----
         1619 vis leafs
         1619 vis clusters
         4658 vis portals
---- FillOutside ----
          408 outleafs
---- MergeAll ----
         1546 mergefaces
---- SolidBSP ----
          904 split nodes
          353 solid leafs
          511 empty leafs
           41 water leafs
            0 detail leafs
            0 detail illusionary leafs
            0 detail fence leafs
            0 illusionary visblocker leafs
         3494 leaffaces
         2874 nodefaces
---- Portalize ----
          552 vis leafs
          552 vis clusters
         1923 vis portals
---- Tjunc ----
         1955 world edges
         9458 edge points
         2428 edges added by tjunctions
            0 faces added by tjunctions
---- MakeFaceEdges ----
---- GrowRegions ----
Processing hull 1...
Processing hull 2...
---- WriteBSPFile ----
Wrote crucibletextures.bsp
          727 planes            14540
         3826 vertexes          45912
          940 nodes             22560
          396 texinfo           15840
         2910 faces             58200
         3125 clipnodes         25000
          589 leafs             16492
         3530 marksurfaces       7060
        14060 surfedges         56240
         7031 edges             28124
           28 textures         266436
              lightdata             0
              visdata               0
              entdata           17607

0.506 seconds elapsed
Peak memory usage: 19759012 (18.8M)
