---- qbsp / ericw-tools v0.18.1 ----
Input file: crucibletextures.map
Output file: crucibletextures.bsp

---- LoadMapFile ----
         4186 faces
          731 brushes
          372 entities
           37 unique texnames
         1340 texinfo

Opened WAD: C:/quake-spire-map/wads/prototype_1_2.wad
Opened WAD: C:/quake-spire-map/wads/id1.wad
Processing hull 0...
---- Brush_LoadEntity ----
          717 brushes
          500 planes
---- CSGFaces ----
         4102 brushfaces
         3104 csgfaces
         2905 mergedfaces
---- SolidBSP ----
         3963 split nodes
         1658 solid leafs
         2197 empty leafs
          109 water leafs
            0 detail leafs
            0 detail illusionary leafs
            0 detail fence leafs
            0 illusionary visblocker leafs
         8584 leaffaces
         8014 nodefaces
---- Portalize ----
         2306 vis leafs
         2306 vis clusters
         6316 vis portals
---- FillOutside ----
          743 outleafs
---- MergeAll ----
         2747 mergefaces
---- SolidBSP ----
         1366 split nodes
          609 solid leafs
          714 empty leafs
           44 water leafs
            0 detail leafs
            0 detail illusionary leafs
            0 detail fence leafs
            0 illusionary visblocker leafs
         5434 leaffaces
         4479 nodefaces
---- Portalize ----
          758 vis leafs
          758 vis clusters
         2404 vis portals
---- Tjunc ----
         2997 world edges
        14595 edge points
         3661 edges added by tjunctions
            0 faces added by tjunctions
---- MakeFaceEdges ----
---- GrowRegions ----
Processing hull 1...
Processing hull 2...
---- WriteBSPFile ----
Wrote crucibletextures.bsp
          950 planes            19000
         5855 vertexes          70260
         1434 nodes             34416
          853 texinfo           34120
         4525 faces             90500
         3796 clipnodes         30368
          819 leafs             22932
         5475 marksurfaces      10950
        21680 surfedges         86720
        10901 edges             43604
           37 textures         266832
              lightdata             0
              visdata               0
              entdata           27568

0.781 seconds elapsed
Peak memory usage: 28307046 (27.0M)
