---- qbsp / ericw-tools v0.18.1 ----
Input file: crucibletextures.map
Output file: crucibletextures.bsp

---- LoadMapFile ----
         8871 faces
         1522 brushes
          465 entities
           37 unique texnames
         2085 texinfo

Opened WAD: C:/quake-spire-map/wads/prototype_1_2.wad
Opened WAD: C:/quake-spire-map/wads/id1.wad
Processing hull 0...
---- Brush_LoadEntity ----
         1508 brushes
          725 planes
---- CSGFaces ----
         8787 brushfaces
         6538 csgfaces
         5845 mergedfaces
---- SolidBSP ----
         8617 split nodes
         3757 solid leafs
         4697 empty leafs
          164 water leafs
            0 detail leafs
            0 detail illusionary leafs
            0 detail fence leafs
            0 illusionary visblocker leafs
        15491 leaffaces
        14521 nodefaces
---- Portalize ----
         4861 vis leafs
         4861 vis clusters
        14205 vis portals
---- FillOutside ----
         1253 outleafs
---- MergeAll ----
         5606 mergefaces
---- SolidBSP ----
         2901 split nodes
         1349 solid leafs
         1508 empty leafs
           45 water leafs
            0 detail leafs
            0 detail illusionary leafs
            0 detail fence leafs
            0 illusionary visblocker leafs
         9113 leaffaces
         7437 nodefaces
---- Portalize ----
         1553 vis leafs
         1553 vis clusters
         5050 vis portals
---- Tjunc ----
         5187 world edges
        26163 edge points
         6378 edges added by tjunctions
            0 faces added by tjunctions
---- MakeFaceEdges ----
---- GrowRegions ----
Processing hull 1...
Processing hull 2...
---- WriteBSPFile ----
Wrote crucibletextures.bsp
         1359 planes            27180
        10091 vertexes         121092
         2969 nodes             71256
         1472 texinfo           58880
         7497 faces            149940
         7837 clipnodes         62696
         1614 leafs             45192
         9172 marksurfaces      18344
        36202 surfedges        144808
        18151 edges             72604
           37 textures         266832
              lightdata             0
              visdata               0
              entdata           27568

1.356 seconds elapsed
Peak memory usage: 53168420 (50.7M)
