---- qbsp / ericw-tools v0.18.1 ----
Input file: crucible.map
Output file: crucible.bsp

---- LoadMapFile ----
        10217 faces
         1746 brushes
          547 entities
           40 unique texnames
         2240 texinfo

Opened WAD: C:/quake-spire-map/wads/prototype_1_2.wad
Opened WAD: C:/quake-spire-map/wads/id1.wad
Processing hull 0...
---- Brush_LoadEntity ----
         1732 brushes
          762 planes
---- CSGFaces ----
        10133 brushfaces
         7374 csgfaces
         6495 mergedfaces
---- SolidBSP ----
         9359 split nodes
         4000 solid leafs
         5197 empty leafs
          163 water leafs
            0 detail leafs
            0 detail illusionary leafs
            0 detail fence leafs
            0 illusionary visblocker leafs
        16690 leaffaces
        15599 nodefaces
---- Portalize ----
         5360 vis leafs
         5360 vis clusters
        16216 vis portals
---- FillOutside ----
         1292 outleafs
---- MergeAll ----
         6279 mergefaces
---- SolidBSP ----
         3250 split nodes
         1458 solid leafs
         1748 empty leafs
           45 water leafs
            0 detail leafs
            0 detail illusionary leafs
            0 detail fence leafs
            0 illusionary visblocker leafs
         9933 leaffaces
         8116 nodefaces
---- Portalize ----
         1793 vis leafs
         1793 vis clusters
         6230 vis portals
---- Tjunc ----
         5617 world edges
        28747 edge points
         6892 edges added by tjunctions
            0 faces added by tjunctions
---- MakeFaceEdges ----
---- GrowRegions ----
Processing hull 1...
Processing hull 2...
---- WriteBSPFile ----
Wrote crucible.bsp
         1428 planes            28560
        11026 vertexes         132312
         3318 nodes             79632
         1612 texinfo           64480
         8172 faces            163440
         9226 clipnodes         73808
         1854 leafs             51912
         9988 marksurfaces      19976
        39402 surfedges        157608
        19763 edges             79052
           40 textures         283284
              lightdata             0
              visdata               0
              entdata           28859

1.620 seconds elapsed
Peak memory usage: 60420600 (57.6M)
