---- qbsp / ericw-tools v0.18.1 ----
Input file: knightsMap.map
Output file: knightsMap.bsp

---- LoadMapFile ----
*** WARNING 06: No info_player_deathmatch entities in level
          144 faces
           24 brushes
           20 entities
            7 unique texnames
           34 texinfo

Opened WAD: C:/QuakeDev/wads/START.WAD
Opened WAD: C:/QuakeDev/wads/id1.wad
Opened WAD: C:/QuakeDev/wads/rogue.wad
Opened WAD: C:/QuakeDev/wads/hipnotic.wad
Opened WAD: C:/QuakeDev/wads/prototype_1_2.wad
Processing hull 0...
---- Brush_LoadEntity ----
           24 brushes
           31 planes
---- CSGFaces ----
          144 brushfaces
          134 csgfaces
          131 mergedfaces
---- SolidBSP ----
          203 split nodes
           70 solid leafs
          134 empty leafs
            0 water leafs
            0 detail leafs
            0 detail illusionary leafs
            0 detail fence leafs
            0 illusionary visblocker leafs
          287 leaffaces
          275 nodefaces
---- Portalize ----
          134 vis leafs
          134 vis clusters
          299 vis portals
---- FillOutside ----
          111 outleafs
---- MergeAll ----
           56 mergefaces
---- SolidBSP ----
           29 split nodes
           20 solid leafs
           10 empty leafs
            0 water leafs
            0 detail leafs
            0 detail illusionary leafs
            0 detail fence leafs
            0 illusionary visblocker leafs
           90 leaffaces
           68 nodefaces
---- Portalize ----
           10 vis leafs
           10 vis clusters
           23 vis portals
---- Tjunc ----
           77 world edges
          264 edge points
           64 edges added by tjunctions
            0 faces added by tjunctions
---- MakeFaceEdges ----
---- GrowRegions ----
Processing hull 1...
*** WARNING 19: No entities in empty space -- no filling performed (hull 1)
Processing hull 2...
*** WARNING 19: No entities in empty space -- no filling performed (hull 2)
---- WriteBSPFile ----
Wrote knightsMap.bsp
           70 planes             1400
          102 vertexes           1224
           29 nodes               696
           12 texinfo             480
           68 faces              1360
          538 clipnodes          4304
           11 leafs               308
           90 marksurfaces        180
          336 surfedges          1344
          169 edges               676
           13 textures         103936
              lightdata             0
              visdata               0
              entdata            1356

0.169 seconds elapsed
Peak memory usage: 1561748 (1.5M)
