---- qbsp / ericw-tools v0.18.1 ----
Input file: Spire.map
Output file: Spire.bsp

---- LoadMapFile ----
         1111 faces
          183 brushes
           88 entities
           15 unique texnames
          332 texinfo

Opened WAD: C:/quake-spire-map/wads/prototype_1_2.wad
Processing hull 0...
---- Brush_LoadEntity ----
          166 brushes
          252 planes
---- CSGFaces ----
         1009 brushfaces
         1060 csgfaces
          973 mergedfaces
---- SolidBSP ----
         1872 split nodes
          774 solid leafs
         1049 empty leafs
           50 water leafs
            0 detail leafs
            0 detail illusionary leafs
            0 detail fence leafs
            0 illusionary visblocker leafs
         4179 leaffaces
         3992 nodefaces
---- Portalize ----
         1099 vis leafs
         1099 vis clusters
         3295 vis portals
---- FillOutside ----
          330 outleafs
---- MergeAll ----
         1001 mergefaces
---- SolidBSP ----
          721 split nodes
          271 solid leafs
          420 empty leafs
           31 water leafs
            0 detail leafs
            0 detail illusionary leafs
            0 detail fence leafs
            0 illusionary visblocker leafs
         2795 leaffaces
         2242 nodefaces
---- Portalize ----
          451 vis leafs
          451 vis clusters
         1555 vis portals
---- Tjunc ----
         1499 world edges
         7081 edge points
         1784 edges added by tjunctions
            0 faces added by tjunctions
---- MakeFaceEdges ----
---- GrowRegions ----
Processing hull 1...
Processing hull 2...
---- WriteBSPFile ----
Wrote Spire.bsp
          737 planes            14740
         3078 vertexes          36936
          817 nodes             19608
          276 texinfo           11040
         2344 faces             46880
         2717 clipnodes         21736
          542 leafs             15176
         2912 marksurfaces       5824
        11136 surfedges         44544
         5713 edges             22852
           15 textures         172024
              lightdata             0
              visdata               0
              entdata            6632

0.347 seconds elapsed
Peak memory usage: 12869572 (12.3M)
