---- qbsp / ericw-tools v0.18.1 ----
Input file: Spire.map
Output file: Spire.bsp

---- LoadMapFile ----
         1879 faces
          311 brushes
          113 entities
           13 unique texnames
          375 texinfo

Opened WAD: C:/quake-spire-map/wads/prototype_1_2.wad
Processing hull 0...
---- Brush_LoadEntity ----
          297 brushes
          329 planes
---- CSGFaces ----
         1795 brushfaces
         1720 csgfaces
         1368 mergedfaces
---- SolidBSP ----
         2568 split nodes
         1144 solid leafs
         1336 empty leafs
           89 water leafs
            0 detail leafs
            0 detail illusionary leafs
            0 detail fence leafs
            0 illusionary visblocker leafs
         5017 leaffaces
         4805 nodefaces
---- Portalize ----
         1425 vis leafs
         1425 vis clusters
         3987 vis portals
---- FillOutside ----
          477 outleafs
---- MergeAll ----
         1381 mergefaces
---- SolidBSP ----
         1027 split nodes
          432 solid leafs
          562 empty leafs
           34 water leafs
            0 detail leafs
            0 detail illusionary leafs
            0 detail fence leafs
            0 illusionary visblocker leafs
         3424 leaffaces
         2685 nodefaces
---- Portalize ----
          596 vis leafs
          596 vis clusters
         1870 vis portals
---- Tjunc ----
         1964 world edges
         8919 edge points
         2295 edges added by tjunctions
            0 faces added by tjunctions
---- MakeFaceEdges ----
---- GrowRegions ----
Processing hull 1...
Processing hull 2...
---- WriteBSPFile ----
Wrote Spire.bsp
          803 planes            16060
         3723 vertexes          44676
         1105 nodes             26520
          333 texinfo           13320
         2813 faces             56260
         3334 clipnodes         26672
          669 leafs             18732
         3567 marksurfaces       7134
        13549 surfedges         54196
         6858 edges             27432
           13 textures         144736
              lightdata             0
              visdata               0
              entdata            7492

0.558 seconds elapsed
Peak memory usage: 17187494 (16.4M)
