---- qbsp / ericw-tools v0.18.1 ----
Input file: Spire.map
Output file: Spire.bsp

---- LoadMapFile ----
         1117 faces
          184 brushes
           91 entities
           15 unique texnames
          333 texinfo

Opened WAD: C:/quake-spire-map/wads/prototype_1_2.wad
Processing hull 0...
---- Brush_LoadEntity ----
          166 brushes
          252 planes
---- CSGFaces ----
         1009 brushfaces
         1057 csgfaces
          970 mergedfaces
---- SolidBSP ----
         1866 split nodes
          772 solid leafs
         1045 empty leafs
           50 water leafs
            0 detail leafs
            0 detail illusionary leafs
            0 detail fence leafs
            0 illusionary visblocker leafs
         4169 leaffaces
         3982 nodefaces
---- Portalize ----
         1095 vis leafs
         1095 vis clusters
         3279 vis portals
---- FillOutside ----
          328 outleafs
---- MergeAll ----
          994 mergefaces
---- SolidBSP ----
          719 split nodes
          271 solid leafs
          418 empty leafs
           31 water leafs
            0 detail leafs
            0 detail illusionary leafs
            0 detail fence leafs
            0 illusionary visblocker leafs
         2784 leaffaces
         2239 nodefaces
---- Portalize ----
          449 vis leafs
          449 vis clusters
         1544 vis portals
---- Tjunc ----
         1496 world edges
         7058 edge points
         1766 edges added by tjunctions
            0 faces added by tjunctions
---- MakeFaceEdges ----
---- GrowRegions ----
Processing hull 1...
Processing hull 2...
---- WriteBSPFile ----
Wrote Spire.bsp
          733 planes            14660
         3076 vertexes          36912
          821 nodes             19704
          277 texinfo           11080
         2347 faces             46940
         2724 clipnodes         21792
          546 leafs             15288
         2907 marksurfaces       5814
        11130 surfedges         44520
         5710 edges             22840
           15 textures         172024
              lightdata             0
              visdata               0
              entdata            7006

0.340 seconds elapsed
Peak memory usage: 12849902 (12.3M)
