---- qbsp / ericw-tools v0.18.1 ----
Input file: zombiemap.map
Output file: zombiemap.bsp

---- LoadMapFile ----
*** WARNING 06: No info_player_deathmatch entities in level
           48 faces
            8 brushes
            9 entities
            2 unique texnames
           17 texinfo

Opened WAD: C:/QuakeDev/wads/START.WAD
Processing hull 0...
---- Brush_LoadEntity ----
            8 brushes
           19 planes
---- CSGFaces ----
           48 brushfaces
           56 csgfaces
           52 mergedfaces
---- SolidBSP ----
           86 split nodes
           29 solid leafs
           58 empty leafs
            0 water leafs
            0 detail leafs
            0 detail illusionary leafs
            0 detail fence leafs
            0 illusionary visblocker leafs
          212 leaffaces
          208 nodefaces
---- Portalize ----
           58 vis leafs
           58 vis clusters
          118 vis portals
---- FillOutside ----
           51 outleafs
---- MergeAll ----
           22 mergefaces
---- SolidBSP ----
           17 split nodes
           12 solid leafs
            6 empty leafs
            0 water leafs
            0 detail leafs
            0 detail illusionary leafs
            0 detail fence leafs
            0 illusionary visblocker leafs
           78 leaffaces
           64 nodefaces
---- Portalize ----
            6 vis leafs
            6 vis clusters
            7 vis portals
---- Tjunc ----
           56 world edges
          208 edge points
           40 edges added by tjunctions
            0 faces added by tjunctions
---- MakeFaceEdges ----
---- GrowRegions ----
Processing hull 1...
Processing hull 2...
---- WriteBSPFile ----
Wrote zombiemap.bsp
           32 planes              640
           82 vertexes            984
           17 nodes               408
            6 texinfo             240
           64 faces              1280
           36 clipnodes           288
            7 leafs               196
           78 marksurfaces        156
          296 surfedges          1184
          149 edges               596
            8 textures          47460
              lightdata             0
              visdata               0
              entdata             594

0.104 seconds elapsed
Peak memory usage: 663488 (0.6M)
